@<TRIPOS>MOLECULE
ZINC00002103
   41    42     0     0     0
SMALL
USER_CHARGES

@<TRIPOS>ATOM
      1 C1          4.3970   -4.9202   -8.6181 C.3       1 <0>        -0.2427
      2 C2          3.3224   -3.8317   -8.5834 C.3       1 <0>         0.0236
      3 C3          2.8212   -3.5643  -10.0040 C.3       1 <0>        -0.2082
      4 O1          2.2321   -4.2645   -7.7672 O.3       1 <0>        -0.2045
      5 C4          2.3423   -4.0561   -6.4308 C.ar      1 <0>         0.1330
      6 C5          3.5242   -3.5492   -5.9034 C.ar      1 <0>        -0.2405
      7 C6          3.6402   -3.3368   -4.5478 C.ar      1 <0>        -0.0194
      8 C7          2.5675   -3.6311   -3.7022 C.ar      1 <0>        -0.1838
      9 C8          1.3829   -4.1456   -4.2356 C.ar      1 <0>        -0.0592
     10 C9          1.2728   -4.3498   -5.5930 C.ar      1 <0>        -0.1722
     11 C10         2.6875   -3.4049   -2.2485 C.2       1 <0>         0.3792
     12 O2          3.7208   -2.9619   -1.7855 O.2       1 <0>        -0.3388
     13 N1          1.6518   -3.6895   -1.4344 N.am      1 <0>        -0.8273
     14 S1          1.7864   -3.4357    0.1964 S.o2      1 <0>         2.7549
     15 O3          3.0123   -4.0301    0.6001 O.2       1 <0>        -0.8873
     16 O4          0.5380   -3.8006    0.7687 O.2       1 <0>        -0.9191
     17 C11         1.9641   -1.6997    0.4406 C.ar      1 <0>        -0.8172
     18 C12         0.8430   -0.9096    0.6173 C.ar      1 <0>         0.0155
     19 C13         0.9787    0.4513    0.8089 C.ar      1 <0>        -0.2356
     20 C14         2.2431    1.0263    0.8241 C.ar      1 <0>         0.1706
     21 C15         3.3672    0.2296    0.6471 C.ar      1 <0>        -0.2353
     22 C16         3.2243   -1.1306    0.4555 C.ar      1 <0>         0.0407
     23 N2          2.3839    2.4024    1.0176 N.pl3     1 <0>        -0.4092
     24 H1          4.7540   -5.1107   -7.6060 H         1 <0>         0.0866
     25 H2          3.9739   -5.8354   -9.0324 H         1 <0>         0.0933
     26 H3          5.2286   -4.5901   -9.2406 H         1 <0>         0.0853
     27 H4          3.7455   -2.9166   -8.1691 H         1 <0>         0.0884
     28 H5          2.0557   -2.7888   -9.9793 H         1 <0>         0.0871
     29 H6          3.6528   -3.2342  -10.6266 H         1 <0>         0.0884
     30 H7          2.3981   -4.4794  -10.4183 H         1 <0>         0.0907
     31 H8          4.3529   -3.3219   -6.5577 H         1 <0>         0.1463
     32 H9          4.5589   -2.9428   -4.1389 H         1 <0>         0.1576
     33 H10         0.5531   -4.3786   -3.5847 H         1 <0>         0.1301
     34 H11         0.3559   -4.7429   -6.0066 H         1 <0>         0.1492
     35 H12         0.8274   -4.0429   -1.8038 H         1 <0>         0.2513
     36 H13        -0.1398   -1.3573    0.6051 H         1 <0>         0.1440
     37 H14         0.1025    1.0684    0.9425 H         1 <0>         0.1333
     38 H15         4.3517    0.6735    0.6587 H         1 <0>         0.1362
     39 H16         4.0978   -1.7506    0.3176 H         1 <0>         0.1683
     40 H17         1.5983    2.9577    1.1417 H         1 <0>         0.2227
     41 H18         3.2674    2.8028    1.0280 H         1 <0>         0.2239
@<TRIPOS>BOND
     1    1    2 1
     2    1   24 1
     3    1   25 1
     4    1   26 1
     5    2    3 1
     6    2    4 1
     7    2   27 1
     8    3   28 1
     9    3   29 1
    10    3   30 1
    11    4    5 1
    12    5   10 ar
    13    5    6 ar
    14    6    7 ar
    15    6   31 1
    16    7    8 ar
    17    7   32 1
    18    8    9 ar
    19    8   11 1
    20    9   10 ar
    21    9   33 1
    22   10   34 1
    23   11   12 2
    24   11   13 am
    25   13   14 1
    26   13   35 1
    27   14   15 2
    28   14   16 2
    29   14   17 1
    30   17   22 ar
    31   17   18 ar
    32   18   19 ar
    33   18   36 1
    34   19   20 ar
    35   19   37 1
    36   20   21 ar
    37   20   23 1
    38   21   22 ar
    39   21   38 1
    40   22   39 1
    41   23   40 1
    42   23   41 1
@<TRIPOS>MOLECULE
ZINC00002112
   39    41     0     0     0
SMALL
USER_CHARGES

@<TRIPOS>ATOM
      1 C1          1.6727    5.8328    2.8040 C.3       1 <0>        -0.1353
      2 C2          0.5331    4.8524    2.9108 C.2       1 <0>        -0.0517
      3 C3         -0.0249    4.1301    1.8520 C.2       1 <0>        -0.3267
      4 C4         -1.0292    3.3602    2.3550 C.2       1 <0>         0.1291
      5 N1         -1.0878    3.5910    3.6950 N.pl3     1 <0>        -0.1109
      6 N2         -0.0972    4.5295    4.0112 N.2       1 <0>        -0.0759
      7 C5         -1.9800    2.9959    4.5974 C.ar      1 <0>         0.0833
      8 C6         -3.2789    2.7053    4.2020 C.ar      1 <0>        -0.1635
      9 C7         -4.1540    2.1136    5.0917 C.ar      1 <0>        -0.1088
     10 C8         -3.7412    1.8210    6.3787 C.ar      1 <0>        -0.1354
     11 C9         -2.4500    2.1144    6.7771 C.ar      1 <0>        -0.1110
     12 C10        -1.5685    2.7009    5.8902 C.ar      1 <0>        -0.1187
     13 N3         -1.8425    2.4922    1.6324 N.pl3     1 <0>        -0.7934
     14 S1         -1.7999    2.5029   -0.0230 S.o2      1 <0>         2.7685
     15 O1         -2.7632    1.5541   -0.4602 O.2       1 <0>        -0.9100
     16 O2         -0.4306    2.4247   -0.3946 O.2       1 <0>        -0.9026
     17 C11        -2.3750    4.0832   -0.5488 C.ar      1 <0>        -0.8193
     18 C12        -3.7315    4.3122   -0.6886 C.ar      1 <0>         0.0202
     19 C13        -4.1854    5.5479   -1.1061 C.ar      1 <0>        -0.2306
     20 C14        -3.2775    6.5614   -1.3856 C.ar      1 <0>         0.1730
     21 C15        -1.9155    6.3280   -1.2440 C.ar      1 <0>        -0.2296
     22 C16        -1.4684    5.0900   -0.8261 C.ar      1 <0>         0.0255
     23 N4         -3.7331    7.8125   -1.8075 N.pl3     1 <0>        -0.4065
     24 H1          2.6180    5.3073    2.9392 H         1 <0>         0.0956
     25 H2          1.6560    6.3036    1.8210 H         1 <0>         0.0870
     26 H3          1.5681    6.5967    3.5745 H         1 <0>         0.0927
     27 H4          0.2840    4.1763    0.8182 H         1 <0>         0.1785
     28 H5         -3.6033    2.9379    3.1985 H         1 <0>         0.1368
     29 H6         -5.1630    1.8829    4.7833 H         1 <0>         0.1363
     30 H7         -4.4286    1.3621    7.0739 H         1 <0>         0.1343
     31 H8         -2.1305    1.8851    7.7830 H         1 <0>         0.1379
     32 H9         -0.5600    2.9295    6.2019 H         1 <0>         0.1562
     33 H10        -2.4342    1.8810    2.0984 H         1 <0>         0.2572
     34 H11        -4.4369    3.5236   -0.4715 H         1 <0>         0.1439
     35 H12        -5.2450    5.7259   -1.2155 H         1 <0>         0.1358
     36 H13        -1.2070    7.1138   -1.4608 H         1 <0>         0.1365
     37 H14        -0.4096    4.9079   -0.7155 H         1 <0>         0.1522
     38 H15        -3.0982    8.5196   -2.0020 H         1 <0>         0.2250
     39 H16        -4.6845    7.9743   -1.9060 H         1 <0>         0.2246
@<TRIPOS>BOND
     1    1    2 1
     2    1   24 1
     3    1   25 1
     4    1   26 1
     5    2    6 2
     6    2    3 1
     7    3    4 2
     8    3   27 1
     9    4    5 1
    10    4   13 1
    11    5    6 1
    12    5    7 1
    13    7   12 ar
    14    7    8 ar
    15    8    9 ar
    16    8   28 1
    17    9   10 ar
    18    9   29 1
    19   10   11 ar
    20   10   30 1
    21   11   12 ar
    22   11   31 1
    23   12   32 1
    24   13   14 1
    25   13   33 1
    26   14   15 2
    27   14   16 2
    28   14   17 1
    29   17   22 ar
    30   17   18 ar
    31   18   19 ar
    32   18   34 1
    33   19   20 ar
    34   19   35 1
    35   20   21 ar
    36   20   23 1
    37   21   22 ar
    38   21   36 1
    39   22   37 1
    40   23   38 1
    41   23   39 1
@<TRIPOS>MOLECULE
ZINC00006108
   41    44     0     0     0
SMALL
USER_CHARGES

@<TRIPOS>ATOM
      1 C1         11.3968    7.1647   -0.3501 C.ar      1 <0>        -0.1173
      2 C2         10.9741    6.8845    0.9359 C.ar      1 <0>        -0.1300
      3 C3         10.3833    5.6674    1.2195 C.ar      1 <0>        -0.1087
      4 C4         10.2156    4.7303    0.2172 C.ar      1 <0>        -0.1137
      5 C5         10.6435    5.0083   -1.0676 C.ar      1 <0>        -0.1086
      6 C6         11.2291    6.2276   -1.3524 C.ar      1 <0>        -0.1300
      7 C7          9.5720    3.4032    0.5264 C.3       1 <0>         0.0390
      8 N1          8.1232    3.5068    0.3352 N.am      1 <0>        -0.3740
      9 C8          7.3361    2.4351    0.5551 C.2       1 <0>         0.3869
     10 O1          7.8282    1.3827    0.9121 O.2       1 <0>        -0.3269
     11 C9          5.8718    2.5398    0.3618 C.2       1 <0>        -0.0613
     12 N2          4.9923    1.5463    0.5490 N.2       1 <0>        -0.1684
     13 C10         3.7765    1.9786    0.2903 C.2       1 <0>         0.0659
     14 C11         2.4543    1.3395    0.3268 C.2       1 <0>        -0.1220
     15 C12         1.3827    2.0744   -0.0000 C.2       1 <0>         0.0494
     16 N3          1.5507    3.3955   -0.3626 N.am      1 <0>        -0.2931
     17 H1          0.7459    3.9363   -0.6072 H         1 <0>         0.2767
     18 C13         2.7589    3.9774   -0.3975 C.2       1 <0>         0.4193
     19 O2          2.8498    5.1450   -0.7246 O.2       1 <0>        -0.3351
     20 N4          3.8689    3.2945   -0.0775 N.am      1 <0>        -0.1649
     21 N5          5.2292    3.6245   -0.0207 N.2       1 <0>        -0.0472
     22 C14        -0.0186    1.5231    0.0104 C.3       1 <0>        -0.1242
     23 C15         0.0021   -0.0041    0.0020 C.3       1 <0>        -0.1575
     24 C16         0.9414   -0.4782    1.1181 C.3       1 <0>        -0.1650
     25 C17         2.3712   -0.1074    0.7280 C.3       1 <0>        -0.0960
     26 H2         11.8577    8.1159   -0.5718 H         1 <0>         0.1311
     27 H3         11.1051    7.6167    1.7190 H         1 <0>         0.1325
     28 H4         10.0531    5.4485    2.2242 H         1 <0>         0.1349
     29 H5         10.5165    4.2744   -1.8497 H         1 <0>         0.1349
     30 H6         11.5591    6.4467   -2.3571 H         1 <0>         0.1325
     31 H7          9.7833    3.1289    1.5599 H         1 <0>         0.1009
     32 H8          9.9730    2.6406   -0.1412 H         1 <0>         0.1009
     33 H9          7.7304    4.3467    0.0503 H         1 <0>         0.2428
     34 H10        -0.5514    1.8798   -0.8711 H         1 <0>         0.0976
     35 H11        -0.5344    1.8703    0.9057 H         1 <0>         0.1069
     36 H12        -1.0030   -0.3863    0.1804 H         1 <0>         0.0931
     37 H13         0.3654   -0.3614   -0.9615 H         1 <0>         0.0952
     38 H14         0.6767    0.0126    2.0547 H         1 <0>         0.0892
     39 H15         0.8594   -1.5589    1.2334 H         1 <0>         0.0951
     40 H16         3.0321   -0.2832    1.5768 H         1 <0>         0.1157
     41 H17         2.6883   -0.7306   -0.1082 H         1 <0>         0.1037
@<TRIPOS>BOND
     1    1    6 ar
     2    1    2 ar
     3    1   26 1
     4    2    3 ar
     5    2   27 1
     6    3    4 ar
     7    3   28 1
     8    4    5 ar
     9    4    7 1
    10    5    6 ar
    11    5   29 1
    12    6   30 1
    13    7    8 1
    14    7   31 1
    15    7   32 1
    16    8    9 am
    17    8   33 1
    18    9   10 2
    19    9   11 1
    20   11   21 2
    21   11   12 1
    22   12   13 2
    23   13   20 1
    24   13   14 1
    25   14   25 1
    26   14   15 2
    27   15   16 1
    28   15   22 1
    29   16   17 1
    30   16   18 am
    31   18   19 2
    32   18   20 am
    33   20   21 1
    34   22   23 1
    35   22   34 1
    36   22   35 1
    37   23   24 1
    38   23   36 1
    39   23   37 1
    40   24   25 1
    41   24   38 1
    42   24   39 1
    43   25   40 1
    44   25   41 1
@<TRIPOS>MOLECULE
ZINC00011462
   41    43     0     0     0
SMALL
USER_CHARGES

@<TRIPOS>ATOM
      1 C1          2.2935    3.6524    1.2425 C.3       1 <0>        -0.1756
      2 C2          1.0830    3.0331    0.5928 C.ar      1 <0>        -0.0933
      3 C3         -0.1232    3.7056    0.5970 C.ar      1 <0>        -0.1392
      4 C4         -1.2376    3.1355   -0.0006 C.ar      1 <0>         0.0593
      5 C5         -1.1401    1.8916   -0.6075 C.ar      1 <0>        -0.1427
      6 C6          0.0638    1.2158   -0.6080 C.ar      1 <0>        -0.1093
      7 C7          1.1800    1.7860   -0.0098 C.ar      1 <0>         0.0495
      8 N1          2.4029    1.1037   -0.0149 N.am      1 <0>        -0.3200
      9 C8          2.4249   -0.2406    0.0794 C.2       1 <0>         0.3488
     10 O1          1.3828   -0.8666    0.0862 O.2       1 <0>        -0.3521
     11 C9          3.7162   -0.9539    0.1746 C.ar      1 <0>        -0.0967
     12 C10         4.9128   -0.2343    0.1668 C.ar      1 <0>        -0.1333
     13 C11         6.1157   -0.9065    0.2565 C.ar      1 <0>        -0.0832
     14 C12         6.1339   -2.2815    0.3533 C.ar      1 <0>        -0.1057
     15 C13         4.9531   -3.0153    0.3627 C.ar      1 <0>         0.0540
     16 C14         3.7381   -2.3429    0.2779 C.ar      1 <0>        -0.0961
     17 N2          5.2334   -4.3787    0.4675 N.am      1 <0>        -0.3083
     18 C15         6.5529   -4.6234    0.5312 C.2       1 <0>         0.3245
     19 O2          7.0798   -5.7117    0.6256 O.2       1 <0>        -0.3207
     20 C16         7.2586   -3.2860    0.4630 C.3       1 <0>        -0.0628
     21 C17         8.1602   -3.2180   -0.7713 C.3       1 <0>        -0.1866
     22 C18         8.0716   -3.0434    1.7362 C.3       1 <0>        -0.1866
     23 O3         -2.4247    3.7984    0.0036 O.3       1 <0>        -0.2904
     24 H1          2.8332    4.2512    0.5088 H         1 <0>         0.0810
     25 H2          1.9767    4.2889    2.0687 H         1 <0>         0.0911
     26 H3          2.9461    2.8652    1.6198 H         1 <0>         0.0790
     27 H4         -0.1988    4.6758    1.0653 H         1 <0>         0.1418
     28 H5         -2.0071    1.4503   -1.0765 H         1 <0>         0.1442
     29 H6          0.1386    0.2460   -1.0772 H         1 <0>         0.1685
     30 H7          3.2341    1.5985   -0.0863 H         1 <0>         0.2349
     31 H8          4.8976    0.8429    0.0906 H         1 <0>         0.1292
     32 H9          7.0437   -0.3541    0.2512 H         1 <0>         0.1385
     33 H10         2.8119   -2.8982    0.2880 H         1 <0>         0.1614
     34 H11         4.5535   -5.0702    0.4917 H         1 <0>         0.2485
     35 H12         8.5856   -2.2180   -0.8558 H         1 <0>         0.0816
     36 H13         8.9640   -3.9478   -0.6747 H         1 <0>         0.0956
     37 H14         7.5733   -3.4397   -1.6626 H         1 <0>         0.0847
     38 H15         7.4224   -3.1424    2.6062 H         1 <0>         0.0851
     39 H16         8.8766   -3.7756    1.7983 H         1 <0>         0.0956
     40 H17         8.4949   -2.0392    1.7112 H         1 <0>         0.0816
     41 H18        -2.5552    4.3763   -0.7607 H         1 <0>         0.2242
@<TRIPOS>BOND
     1    1    2 1
     2    1   24 1
     3    1   25 1
     4    1   26 1
     5    2    7 ar
     6    2    3 ar
     7    3    4 ar
     8    3   27 1
     9    4    5 ar
    10    4   23 1
    11    5    6 ar
    12    5   28 1
    13    6    7 ar
    14    6   29 1
    15    7    8 1
    16    8    9 am
    17    8   30 1
    18    9   10 2
    19    9   11 1
    20   11   16 ar
    21   11   12 ar
    22   12   13 ar
    23   12   31 1
    24   13   14 ar
    25   13   32 1
    26   14   20 1
    27   14   15 ar
    28   15   16 ar
    29   15   17 1
    30   16   33 1
    31   17   18 am
    32   17   34 1
    33   18   19 2
    34   18   20 1
    35   20   21 1
    36   20   22 1
    37   21   35 1
    38   21   36 1
    39   21   37 1
    40   22   38 1
    41   22   39 1
    42   22   40 1
    43   23   41 1
@<TRIPOS>MOLECULE
ZINC00011880
   40    42     0     0     0
SMALL
USER_CHARGES

@<TRIPOS>ATOM
      1 C1         -7.2254    9.7041    0.9478 C.3       1 <0>        -0.1978
      2 C2         -7.3359    8.3352    0.2734 C.3       1 <0>         0.0982
      3 C3         -6.1127    7.4882    0.6398 C.3       1 <0>         0.0108
      4 H1         -6.0157    7.4346    1.7242 H         1 <0>         0.0898
      5 C4         -6.3100    6.0728    0.0674 C.3       1 <0>         0.0998
      6 H2         -7.0349    5.5260    0.6705 H         1 <0>         0.1389
      7 C5         -6.8206    6.2213   -1.3292 C.2       1 <0>        -0.3968
      8 C6         -7.3307    7.3518   -1.8957 C.2       1 <0>         0.0740
      9 C7         -7.7465    7.2539   -3.2225 C.2       1 <0>        -0.1830
     10 C8         -7.6328    6.0743   -3.8788 C.2       1 <0>        -0.2948
     11 S1         -6.9158    5.0201   -2.6264 S.3       1 <0>         0.3857
     12 O1         -7.4082    8.5097   -1.1440 O.3       1 <0>        -0.1820
     13 N1         -5.0315    5.3576    0.0565 N.am      1 <0>        -0.3816
     14 C9         -5.0132    4.0100    0.0491 C.2       1 <0>         0.3431
     15 O2         -6.0575    3.3880    0.0514 O.2       1 <0>        -0.3461
     16 C10        -3.7229    3.2882    0.0380 C.ar      1 <0>        -0.0850
     17 C11        -3.7005    1.8927    0.0303 C.ar      1 <0>        -0.0747
     18 C12        -2.4931    1.2253    0.0205 C.ar      1 <0>        -0.0789
     19 C13        -1.3062    1.9364    0.0188 C.ar      1 <0>        -0.0907
     20 C14        -1.3214    3.3198    0.0321 C.ar      1 <0>        -0.0780
     21 C15        -2.5220    3.9995    0.0357 C.ar      1 <0>        -0.1149
     22 N2         -0.0144    1.2138    0.0087 N.pl3     1 <0>         0.5451
     23 O3          0.0021   -0.0041    0.0020 O.2       1 <0>        -0.3476
     24 O4          1.0320    1.8371    0.0021 O.3       1 <0>        -0.3505
     25 O5         -4.9371    8.0742    0.0771 O.3       1 <0>        -0.3218
     26 C16        -8.6022    7.6296    0.7627 C.3       1 <0>        -0.2443
     27 H3         -8.1010   10.3035    0.6987 H         1 <0>         0.0914
     28 H4         -7.1701    9.5732    2.0285 H         1 <0>         0.0835
     29 H5         -6.3264   10.2106    0.5967 H         1 <0>         0.1047
     30 H6         -8.1579    8.1162   -3.7260 H         1 <0>         0.1538
     31 H7         -7.9053    5.8332   -4.8957 H         1 <0>         0.1916
     32 H8         -4.1981    5.8540    0.0546 H         1 <0>         0.2218
     33 H9         -4.6263    1.3365    0.0324 H         1 <0>         0.1750
     34 H10        -2.4743    0.1455    0.0146 H         1 <0>         0.1726
     35 H11        -0.3914    3.8689    0.0354 H         1 <0>         0.1692
     36 H12        -2.5325    5.0794    0.0417 H         1 <0>         0.1392
     37 H13        -4.1261    7.5795    0.2574 H         1 <0>         0.2011
     38 H14        -8.6855    6.6561    0.2795 H         1 <0>         0.0960
     39 H15        -8.5490    7.4955    1.8431 H         1 <0>         0.0833
     40 H16        -9.4743    8.2344    0.5141 H         1 <0>         0.1000
@<TRIPOS>BOND
     1    1    2 1
     2    1   27 1
     3    1   28 1
     4    1   29 1
     5    2   12 1
     6    2    3 1
     7    2   26 1
     8    3    4 1
     9    3    5 1
    10    3   25 1
    11    5    6 1
    12    5    7 1
    13    5   13 1
    14    7   11 1
    15    7    8 2
    16    8    9 1
    17    8   12 1
    18    9   10 2
    19    9   30 1
    20   10   11 1
    21   10   31 1
    22   13   14 am
    23   13   32 1
    24   14   15 2
    25   14   16 1
    26   16   21 ar
    27   16   17 ar
    28   17   18 ar
    29   17   33 1
    30   18   19 ar
    31   18   34 1
    32   19   20 ar
    33   19   22 1
    34   20   21 ar
    35   20   35 1
    36   21   36 1
    37   22   23 2
    38   22   24 1
    39   25   37 1
    40   26   38 1
    41   26   39 1
    42   26   40 1
@<TRIPOS>MOLECULE
ZINC00013885
   45    48     0     0     0
SMALL
USER_CHARGES

@<TRIPOS>ATOM
      1 C1          1.2010   -0.0571    0.2102 C.2       1 <0>        -0.0463
      2 N1         -0.0069    0.4254    0.1822 N.2       1 <0>        -0.1384
      3 C2          0.0472    1.7663   -0.0097 C.ar      1 <0>        -0.2062
      4 C3          1.4039    2.1166   -0.1049 C.ar      1 <0>         0.1102
      5 N2          2.1078    0.9476    0.0373 N.pl3     1 <0>        -0.1687
      6 C4          3.5655    0.8045    0.0091 C.3       1 <0>         0.0601
      7 H1          3.9208    0.3612    0.9394 H         1 <0>         0.1091
      8 C5          3.9988   -0.0584   -1.1987 C.3       1 <0>        -0.1767
      9 C6          4.2961    1.0271   -2.2591 C.3       1 <0>        -0.0900
     10 H2          5.1485    0.7354   -2.8726 H         1 <0>         0.1116
     11 C7          4.6202    2.2672   -1.4589 C.2       1 <0>        -0.1198
     12 C8          4.2219    2.1462   -0.2189 C.2       1 <0>        -0.1808
     13 C9          3.0659    1.2657   -3.1370 C.3       1 <0>         0.0087
     14 O1          3.3924    2.1952   -4.1722 O.3       1 <0>        -0.3551
     15 N3          1.7322    3.3906   -0.2962 N.ar      1 <0>        -0.2965
     16 C10         0.7954    4.3199   -0.3961 C.ar      1 <0>         0.2491
     17 N4         -0.4974    4.0341   -0.3126 N.ar      1 <0>        -0.2992
     18 C11        -0.9139    2.7871   -0.1170 C.ar      1 <0>         0.0088
     19 S1         -2.6333    2.4205    0.0008 S.3       1 <0>         0.2639
     20 C12        -3.3237    4.0807   -0.2073 C.3       1 <0>        -0.1862
     21 H3         -2.8810    4.7510    0.5295 H         1 <0>         0.1323
     22 C13        -4.8386    4.0301    0.0027 C.3       1 <0>        -0.1465
     23 C14        -5.4335    5.3764   -0.4296 C.3       1 <0>        -0.1544
     24 C15        -5.2691    5.5137   -1.9447 C.3       1 <0>        -0.1303
     25 C16        -3.8544    5.2076   -2.3410 C.2       1 <0>        -0.1678
     26 C17        -3.0095    4.5807   -1.5869 C.2       1 <0>        -0.1501
     27 N5          1.1778    5.6363   -0.5952 N.pl3     1 <0>        -0.3785
     28 H4          1.4492   -1.0990    0.3490 H         1 <0>         0.2068
     29 H5          4.8946   -0.6345   -0.9668 H         1 <0>         0.1053
     30 H6          3.1889   -0.7114   -1.5237 H         1 <0>         0.1000
     31 H7          5.1163    3.1395   -1.8581 H         1 <0>         0.1527
     32 H8          4.3450    2.9032    0.5414 H         1 <0>         0.1562
     33 H9          2.7488    0.3227   -3.5822 H         1 <0>         0.0582
     34 H10         2.2575    1.6698   -2.5276 H         1 <0>         0.0761
     35 H11         2.6575    2.3939   -4.7684 H         1 <0>         0.2121
     36 H12        -5.2657    3.2298   -0.6016 H         1 <0>         0.0957
     37 H13        -5.0568    3.8543    1.0561 H         1 <0>         0.0905
     38 H14        -4.9060    6.1881    0.0713 H         1 <0>         0.0869
     39 H15        -6.4918    5.4127   -0.1711 H         1 <0>         0.0840
     40 H16        -5.5158    6.5323   -2.2441 H         1 <0>         0.0859
     41 H17        -5.9430    4.8187   -2.4457 H         1 <0>         0.0908
     42 H18        -3.5203    5.5309   -3.3158 H         1 <0>         0.1194
     43 H19        -2.0168    4.4063   -1.9749 H         1 <0>         0.1398
     44 H20         2.1186    5.8637   -0.6590 H         1 <0>         0.2388
     45 H21         0.5048    6.3307   -0.6708 H         1 <0>         0.2388
@<TRIPOS>BOND
     1    1    5 1
     2    1    2 2
     3    1   28 1
     4    2    3 1
     5    3   18 ar
     6    3    4 ar
     7    4    5 1
     8    4   15 ar
     9    5    6 1
    10    6    7 1
    11    6   12 1
    12    6    8 1
    13    8    9 1
    14    8   29 1
    15    8   30 1
    16    9   10 1
    17    9   11 1
    18    9   13 1
    19   11   12 2
    20   11   31 1
    21   12   32 1
    22   13   14 1
    23   13   33 1
    24   13   34 1
    25   14   35 1
    26   15   16 ar
    27   16   17 ar
    28   16   27 1
    29   17   18 ar
    30   18   19 1
    31   19   20 1
    32   20   21 1
    33   20   26 1
    34   20   22 1
    35   22   23 1
    36   22   36 1
    37   22   37 1
    38   23   24 1
    39   23   38 1
    40   23   39 1
    41   24   25 1
    42   24   40 1
    43   24   41 1
    44   25   26 2
    45   25   42 1
    46   26   43 1
    47   27   44 1
    48   27   45 1
@<TRIPOS>MOLECULE
ZINC00013886
   43    46     0     0     0
SMALL
USER_CHARGES

@<TRIPOS>ATOM
      1 C1          1.2676    2.8703    2.3112 C.2       1 <0>        -0.0484
      2 N1          1.4735    4.0261    2.8718 N.2       1 <0>        -0.1382
      3 C2          1.8469    4.9251    1.9282 C.ar      1 <0>        -0.2281
      4 C3          2.1843    6.2898    1.9447 C.ar      1 <0>         0.2378
      5 N2          2.5110    6.8773    0.7993 N.ar      1 <0>        -0.3357
      6 C4          2.5215    6.1988   -0.3412 C.ar      1 <0>         0.2664
      7 N3          2.2112    4.9141   -0.4014 N.ar      1 <0>        -0.3208
      8 C5          1.8718    4.2481    0.6981 C.ar      1 <0>         0.1102
      9 N4          1.5058    2.9542    0.9704 N.pl3     1 <0>        -0.1662
     10 C6          1.3865    1.8643   -0.0012 C.3       1 <0>         0.0643
     11 H1          1.6477    2.2143   -0.9998 H         1 <0>         0.1421
     12 C7          2.2898    0.6774    0.4070 C.3       1 <0>        -0.1726
     13 C8          1.4189   -0.5289   -0.0143 C.3       1 <0>        -0.0919
     14 H2          1.6894   -0.8607   -1.0167 H         1 <0>         0.1206
     15 C9          0.0021   -0.0041    0.0020 C.2       1 <0>        -0.1383
     16 C10        -0.0156    1.3011    0.0092 C.2       1 <0>        -0.2070
     17 C11         1.5738   -1.6764    0.9858 C.3       1 <0>         0.0067
     18 O1          0.7941   -2.7932    0.5538 O.3       1 <0>        -0.3546
     19 N5          2.8696    6.8581   -1.5086 N.pl3     1 <0>        -0.3793
     20 N6          2.1766    7.0054    3.1289 N.pl3     1 <0>        -0.2195
     21 C12         2.5309    8.4269    3.1281 C.3       1 <0>         0.0015
     22 H3          3.2983    8.6258    2.3800 H         1 <0>         0.1318
     23 C13         3.0194    8.8611    4.5295 C.3       1 <0>        -0.1537
     24 C14         2.4401   10.2916    4.6257 C.3       1 <0>        -0.1437
     25 C15         1.2576   10.2912    3.6851 C.2       1 <0>        -0.1618
     26 C16         1.3076    9.2741    2.8654 C.2       1 <0>        -0.2135
     27 H4          0.9570    1.9759    2.8308 H         1 <0>         0.2064
     28 H5          2.4692    0.6740    1.4822 H         1 <0>         0.1017
     29 H6          3.2300    0.6928   -0.1443 H         1 <0>         0.1050
     30 H7         -0.8801   -0.6270    0.0068 H         1 <0>         0.1558
     31 H8         -0.9144    1.8998    0.0169 H         1 <0>         0.1525
     32 H9          2.6227   -1.9670    1.0457 H         1 <0>         0.0621
     33 H10         1.2301   -1.3513    1.9678 H         1 <0>         0.0619
     34 H11         0.8448   -3.5593    1.1418 H         1 <0>         0.2127
     35 H12         3.1003    7.7999   -1.4834 H         1 <0>         0.2386
     36 H13         2.8827    6.3780   -2.3514 H         1 <0>         0.2376
     37 H14         1.2583    6.9855    3.5244 H         1 <0>         0.1969
     38 H15         2.6041    8.2178    5.3053 H         1 <0>         0.1017
     39 H16         4.1082    8.8752    4.5773 H         1 <0>         0.0956
     40 H17         2.1148   10.5018    5.6446 H         1 <0>         0.0885
     41 H18         3.1815   11.0238    4.3060 H         1 <0>         0.0945
     42 H19         0.4744   11.0349    3.6880 H         1 <0>         0.1365
     43 H20         0.5723    9.0655    2.1023 H         1 <0>         0.1438
@<TRIPOS>BOND
     1    1    9 1
     2    1    2 2
     3    1   27 1
     4    2    3 1
     5    3    8 ar
     6    3    4 ar
     7    4    5 ar
     8    4   20 1
     9    5    6 ar
    10    6    7 ar
    11    6   19 1
    12    7    8 ar
    13    8    9 1
    14    9   10 1
    15   10   11 1
    16   10   16 1
    17   10   12 1
    18   12   13 1
    19   12   28 1
    20   12   29 1
    21   13   14 1
    22   13   15 1
    23   13   17 1
    24   15   16 2
    25   15   30 1
    26   16   31 1
    27   17   18 1
    28   17   32 1
    29   17   33 1
    30   18   34 1
    31   19   35 1
    32   19   36 1
    33   20   21 1
    34   20   37 1
    35   21   22 1
    36   21   26 1
    37   21   23 1
    38   23   24 1
    39   23   38 1
    40   23   39 1
    41   24   25 1
    42   24   40 1
    43   24   41 1
    44   25   26 2
    45   25   42 1
    46   26   43 1
@<TRIPOS>MOLECULE
ZINC00015788
   45    48     0     0     0
SMALL
USER_CHARGES

@<TRIPOS>ATOM
      1 C1         -0.0127    1.0858    0.0080 C.3       1 <0>        -0.0672
      2 N1         -0.6984    1.5583    1.2133 N.pl3     1 <0>        -0.3079
      3 C2         -2.0511    1.7682    1.1935 C.2       1 <0>         0.2864
      4 N2         -2.7462    1.5397    0.0466 N.am      1 <0>        -0.3144
      5 H1         -2.2699    1.2254   -0.7746 H         1 <0>         0.2460
      6 C3         -4.0814    1.7388    0.0209 C.2       1 <0>         0.3439
      7 O1         -4.7212    1.5337   -0.9975 O.2       1 <0>        -0.3717
      8 C4         -4.7196    2.1924    1.1890 C.2       1 <0>        -0.3572
      9 C5         -3.9697    2.4102    2.3080 C.2       1 <0>         0.0501
     10 N3         -2.6566    2.1934    2.2844 N.2       1 <0>        -0.3223
     11 C6          0.0634    1.8061    2.4399 C.3       1 <0>         0.0462
     12 C7          1.1301    2.8716    2.1733 C.3       1 <0>        -0.1768
     13 C8          1.9619    3.0821    3.4406 C.3       1 <0>        -0.0683
     14 N4          2.5958    1.8154    3.8276 N.pl3     1 <0>        -0.1868
     15 C9          1.5901    0.7903    4.1344 C.3       1 <0>        -0.0526
     16 C10         0.7472    0.5114    2.8879 C.3       1 <0>        -0.1809
     17 C11         3.4559    1.9975    4.8900 C.2       1 <0>         0.1154
     18 N5          4.4972    2.8799    4.9135 N.pl3     1 <0>        -0.2292
     19 H2          4.7673    3.4986    4.1758 H         1 <0>         0.2552
     20 C12         5.1109    2.7582    6.1517 C.ar      1 <0>        -0.0569
     21 C13         6.1971    3.3783    6.7501 C.ar      1 <0>        -0.1120
     22 C14         6.5703    3.0271    8.0307 C.ar      1 <0>        -0.1429
     23 C15         5.8622    2.0532    8.7278 C.ar      1 <0>         0.0579
     24 C16         4.7778    1.4267    8.1453 C.ar      1 <0>        -0.1073
     25 C17         4.3910    1.7743    6.8485 C.ar      1 <0>        -0.0153
     26 N6          3.3919    1.3536    6.0288 N.2       1 <0>        -0.2199
     27 O2          6.2397    1.7165    9.9900 O.3       1 <0>        -0.2881
     28 H3          0.0021   -0.0041    0.0020 H         1 <0>         0.0820
     29 H4          1.0099    1.4631    0.0003 H         1 <0>         0.1013
     30 H5         -0.5399    1.4469   -0.8751 H         1 <0>         0.0803
     31 H6         -5.7857    2.3652    1.2003 H         1 <0>         0.1658
     32 H7         -4.4424    2.7586    3.2144 H         1 <0>         0.1641
     33 H8         -0.6105    2.1521    3.2236 H         1 <0>         0.1498
     34 H9          1.7795    2.5416    1.3625 H         1 <0>         0.0945
     35 H10         0.6472    3.8084    1.8951 H         1 <0>         0.1022
     36 H11         1.3141    3.4254    4.2472 H         1 <0>         0.0825
     37 H12         2.7315    3.8300    3.2496 H         1 <0>         0.0919
     38 H13         0.9441    1.1443    4.9378 H         1 <0>         0.0870
     39 H14         2.0897   -0.1264    4.4476 H         1 <0>         0.1266
     40 H15        -0.0092   -0.2382    3.1203 H         1 <0>         0.1053
     41 H16         1.3906    0.1442    2.0883 H         1 <0>         0.0940
     42 H17         6.7508    4.1347    6.2139 H         1 <0>         0.1289
     43 H18         7.4166    3.5113    8.4951 H         1 <0>         0.1430
     44 H19         4.2312    0.6711    8.6899 H         1 <0>         0.1525
     45 H20         6.8839    0.9963   10.0290 H         1 <0>         0.2249
@<TRIPOS>BOND
     1    1    2 1
     2    1   28 1
     3    1   29 1
     4    1   30 1
     5    2    3 1
     6    2   11 1
     7    3   10 2
     8    3    4 1
     9    4    5 1
    10    4    6 am
    11    6    7 2
    12    6    8 1
    13    8    9 2
    14    8   31 1
    15    9   10 1
    16    9   32 1
    17   11   16 1
    18   11   12 1
    19   11   33 1
    20   12   13 1
    21   12   34 1
    22   12   35 1
    23   13   14 1
    24   13   36 1
    25   13   37 1
    26   14   15 1
    27   14   17 1
    28   15   16 1
    29   15   38 1
    30   15   39 1
    31   16   40 1
    32   16   41 1
    33   17   26 2
    34   17   18 1
    35   18   19 1
    36   18   20 1
    37   20   25 ar
    38   20   21 ar
    39   21   22 ar
    40   21   42 1
    41   22   23 ar
    42   22   43 1
    43   23   24 ar
    44   23   27 1
    45   24   25 ar
    46   24   44 1
    47   25   26 1
    48   27   45 1
@<TRIPOS>MOLECULE
ZINC00015788
   46    49     0     0     0
SMALL
USER_CHARGES

@<TRIPOS>ATOM
      1 C1          4.7459    1.5023   -0.0344 C.3       1 <0>        -0.0680
      2 N1          3.4428    2.1716   -0.0188 N.pl3     1 <0>        -0.3177
      3 C2          2.2923    1.4298   -0.0122 C.2       1 <0>         0.2801
      4 N2          2.3726    0.0717   -0.0203 N.am      1 <0>        -0.3092
      5 H1          3.2657   -0.3781   -0.0313 H         1 <0>         0.2492
      6 C3          1.2422   -0.6667   -0.0134 C.2       1 <0>         0.3388
      7 O1          1.2958   -1.8856   -0.0209 O.2       1 <0>        -0.3456
      8 C4          0.0021   -0.0041    0.0020 C.2       1 <0>        -0.3273
      9 C5         -0.0164    1.3604    0.0095 C.2       1 <0>         0.0375
     10 N3          1.1259    2.0437    0.0023 N.2       1 <0>        -0.3303
     11 C6          3.3710    3.6348   -0.0103 C.3       1 <0>         0.0513
     12 C7          4.0578    4.1882   -1.2619 C.3       1 <0>        -0.1789
     13 C8          4.0346    5.7178   -1.2164 C.3       1 <0>        -0.0719
     14 N4          4.7264    6.1846   -0.0082 N.pl3     1 <0>        -0.1774
     15 C9          4.0556    5.7046    1.2067 C.3       1 <0>        -0.0885
     16 C10         4.0808    4.1747    1.2344 C.3       1 <0>        -0.1754
     17 C11         4.8364    7.5593   -0.0017 C.cat     1 <0>         0.2275
     18 N5          5.4116    8.3046   -0.9903 N.pl3     1 <0>        -0.1684
     19 H2          5.8216    7.9566   -1.8334 H         1 <0>         0.3085
     20 C12         5.3213    9.6348   -0.6071 C.ar      1 <0>        -0.0241
     21 C13         5.7205   10.8299   -1.1857 C.ar      1 <0>        -0.0845
     22 C14         5.4808   12.0228   -0.5360 C.ar      1 <0>        -0.1045
     23 C15         4.8397   12.0349    0.6988 C.ar      1 <0>         0.1255
     24 C16         4.4360   10.8527    1.2880 C.ar      1 <0>        -0.1319
     25 C17         4.6736    9.6385    0.6389 C.ar      1 <0>        -0.0252
     26 O2          4.6088   13.2176    1.3290 O.3       1 <0>        -0.2692
     27 H3          5.0596    1.3418   -1.0659 H         1 <0>         0.0856
     28 H4          5.4804    2.1252    0.4760 H         1 <0>         0.0931
     29 H5          4.6671    0.5419    0.4750 H         1 <0>         0.0964
     30 H6         -0.9204   -0.5656    0.0075 H         1 <0>         0.1760
     31 H7         -0.9595    1.8868    0.0169 H         1 <0>         0.1692
     32 H8          2.3271    3.9482    0.0010 H         1 <0>         0.1528
     33 H9          5.0908    3.8416   -1.2935 H         1 <0>         0.1085
     34 H10         3.5297    3.8415   -2.1502 H         1 <0>         0.1307
     35 H11         3.0012    6.0641   -1.1999 H         1 <0>         0.0973
     36 H12         4.5367    6.1149   -2.0987 H         1 <0>         0.1063
     37 H13         3.0221    6.0510    1.2119 H         1 <0>         0.0876
     38 H14         4.5729    6.0923    2.0843 H         1 <0>         0.1089
     39 H15         3.5691    3.8184    2.1284 H         1 <0>         0.1293
     40 H16         5.1141    3.8279    1.2432 H         1 <0>         0.1112
     41 H17         6.2189   10.8268   -2.1438 H         1 <0>         0.1650
     42 H18         5.7925   12.9526   -0.9883 H         1 <0>         0.1799
     43 H19         3.9390   10.8667    2.2467 H         1 <0>         0.1694
     44 H20         5.3236   13.4955    1.9180 H         1 <0>         0.2559
     45 N6          4.3991    8.3441    0.9522 N.pl3     1 <0>        -0.1556
     46 H21         3.9222    8.0299    1.8055 H         1 <0>         0.3118
@<TRIPOS>BOND
     1    1    2 1
     2    1   27 1
     3    1   28 1
     4    1   29 1
     5    2    3 1
     6    2   11 1
     7    3   10 2
     8    3    4 1
     9    4    5 1
    10    4    6 am
    11    6    7 2
    12    6    8 1
    13    8    9 2
    14    8   30 1
    15    9   10 1
    16    9   31 1
    17   11   16 1
    18   11   12 1
    19   11   32 1
    20   12   13 1
    21   12   33 1
    22   12   34 1
    23   13   14 1
    24   13   35 1
    25   13   36 1
    26   14   15 1
    27   14   17 1
    28   15   16 1
    29   15   37 1
    30   15   38 1
    31   16   39 1
    32   16   40 1
    33   17   18 1
    34   17   45 2
    35   18   19 1
    36   18   20 1
    37   20   25 ar
    38   20   21 ar
    39   21   22 ar
    40   21   41 1
    41   22   23 ar
    42   22   42 1
    43   23   24 ar
    44   23   26 1
    45   24   25 ar
    46   24   43 1
    47   25   45 1
    48   26   44 1
    49   45   46 1
@<TRIPOS>MOLECULE
ZINC00016242
   43    44     0     0     0
SMALL
USER_CHARGES

@<TRIPOS>ATOM
      1 C1         -8.2299    3.3847   -0.8383 C.3       1 <0>        -0.0789
      2 N1         -7.1979    3.9873    0.0091 N.pl3     1 <0>        -0.2968
      3 C2         -5.9299    3.2872    0.2291 C.3       1 <0>        -0.0133
      4 C3         -4.9252    3.7011   -0.8479 C.3       1 <0>        -0.1414
      5 C4         -3.6209    2.9809   -0.6216 C.ar      1 <0>        -0.1166
      6 C5         -3.3998    1.7513   -1.2145 C.ar      1 <0>        -0.1029
      7 C6         -2.2055    1.0889   -1.0095 C.ar      1 <0>        -0.1399
      8 C7         -1.2258    1.6590   -0.2067 C.ar      1 <0>         0.0715
      9 C8         -1.4532    2.8918    0.3917 C.ar      1 <0>        -0.1551
     10 C9         -2.6477    3.5513    0.1782 C.ar      1 <0>        -0.1053
     11 N2         -0.0169    0.9915    0.0031 N.pl3     1 <0>        -0.8148
     12 S1          1.4147    1.8165   -0.1083 S.o2      1 <0>         2.6776
     13 O1          1.2797    2.9011    0.7998 O.2       1 <0>        -0.9089
     14 O2          2.4181    0.8294    0.0863 O.2       1 <0>        -0.8870
     15 C10         1.4663    2.4322   -1.8138 C.3       1 <0>        -0.8214
     16 C11        -7.4218    5.2236    0.6045 C.ar      1 <0>         0.2591
     17 C12        -6.4022    5.8363    1.3202 C.ar      1 <0>        -0.3198
     18 C13        -6.6413    7.0733    1.9103 C.ar      1 <0>         0.2346
     19 C14        -7.9048    7.6487    1.7562 C.ar      1 <0>        -0.2414
     20 C15        -8.8651    6.9787    1.0310 C.ar      1 <0>         0.0483
     21 N3         -5.6459    7.7216    2.6360 N.pl3     1 <0>        -0.3409
     22 H1         -8.8872    2.7667   -0.2266 H         1 <0>         0.1002
     23 H2         -8.8126    4.1720   -1.3166 H         1 <0>         0.0779
     24 H3         -7.7577    2.7671   -1.6023 H         1 <0>         0.1264
     25 H4         -6.0954    2.2110    0.1774 H         1 <0>         0.1251
     26 H5         -5.5369    3.5475    1.2119 H         1 <0>         0.1109
     27 H6         -4.7598    4.7772   -0.7962 H         1 <0>         0.0943
     28 H7         -5.3182    3.4407   -1.8307 H         1 <0>         0.1022
     29 H8         -4.1619    1.3088   -1.8389 H         1 <0>         0.1342
     30 H9         -2.0334    0.1288   -1.4732 H         1 <0>         0.1472
     31 H10        -0.6953    3.3358    1.0200 H         1 <0>         0.1903
     32 H11        -2.8235    4.5117    0.6399 H         1 <0>         0.1251
     33 H12        -0.0157    0.0439    0.2102 H         1 <0>         0.2617
     34 H13         0.6534    3.1415   -1.9688 H         1 <0>         0.1349
     35 H14         2.4204    2.9283   -1.9922 H         1 <0>         0.1511
     36 H15         1.3564    1.5968   -2.5052 H         1 <0>         0.1411
     37 H16        -5.4380    5.3597    1.4177 H         1 <0>         0.1877
     38 H17        -8.1261    8.6078    2.2007 H         1 <0>         0.1866
     39 H18        -9.8435    7.4194    0.9085 H         1 <0>         0.1892
     40 H19        -4.7727    7.3112    2.7352 H         1 <0>         0.2505
     41 H20        -5.8256    8.5838    3.0425 H         1 <0>         0.2515
     42 N4         -8.6621    5.7708    0.4361 N.ar      1 <0>        -0.1965
     43 H21        -9.3963    5.3002   -0.1058 H         1 <0>         0.3018
@<TRIPOS>BOND
     1    1    2 1
     2    1   22 1
     3    1   23 1
     4    1   24 1
     5    2    3 1
     6    2   16 1
     7    3    4 1
     8    3   25 1
     9    3   26 1
    10    4    5 1
    11    4   27 1
    12    4   28 1
    13    5   10 ar
    14    5    6 ar
    15    6    7 ar
    16    6   29 1
    17    7    8 ar
    18    7   30 1
    19    8    9 ar
    20    8   11 1
    21    9   10 ar
    22    9   31 1
    23   10   32 1
    24   11   12 1
    25   11   33 1
    26   12   13 2
    27   12   14 2
    28   12   15 1
    29   15   34 1
    30   15   35 1
    31   15   36 1
    32   16   17 ar
    33   16   42 ar
    34   17   18 ar
    35   17   37 1
    36   18   19 ar
    37   18   21 1
    38   19   20 ar
    39   19   38 1
    40   20   39 1
    41   20   42 ar
    42   21   40 1
    43   21   41 1
    44   42   43 1
@<TRIPOS>MOLECULE
ZINC00017176
   42    44     0     0     0
SMALL
USER_CHARGES

@<TRIPOS>ATOM
      1 C1         -0.0127    1.0858    0.0080 C.3       1 <0>        -0.2017
      2 C2         -0.7288    1.5792    1.2668 C.3       1 <0>        -0.1415
      3 C3         -2.1642    1.0497    1.2777 C.3       1 <0>        -0.7679
      4 S1         -3.0133    1.6347    2.7701 S.o2      1 <0>         2.6797
      5 O1         -2.4472    1.0292    3.9244 O.2       1 <0>        -0.9050
      6 O2         -3.1991    3.0421    2.7077 O.2       1 <0>        -0.9074
      7 N1         -4.5401    1.0019    2.6668 N.pl3     1 <0>        -0.8752
      8 C4         -4.7372   -0.4487    2.7223 C.3       1 <0>         0.0475
      9 H1         -3.8205   -0.9732    2.4526 H         1 <0>         0.1077
     10 C5         -5.2316   -0.8821    4.1186 C.3       1 <0>        -0.1352
     11 C6         -6.1859   -2.0295    3.8627 C.ar      1 <0>        -0.0732
     12 C7         -6.6750   -2.9971    4.7267 C.ar      1 <0>        -0.1116
     13 C8         -7.5480   -3.9617    4.2708 C.ar      1 <0>        -0.1126
     14 C9         -7.9412   -3.9641    2.9337 C.ar      1 <0>        -0.0255
     15 C10        -7.4486   -2.9909    2.0687 C.ar      1 <0>        -0.0808
     16 C11        -6.5728   -2.0274    2.5346 C.ar      1 <0>        -0.0942
     17 C12        -5.9044   -0.8791    1.8089 C.3       1 <0>        -0.1287
     18 C13        -8.8800   -4.9988    2.4347 C.2       1 <0>        -0.0601
     19 C14        -9.3768   -5.9848    3.3189 C.2       1 <0>        -0.0933
     20 C15       -10.2381   -6.9196    2.8250 C.2       1 <0>        -0.1993
     21 C16       -10.5817   -6.8447    1.4570 C.2       1 <0>         0.2766
     22 O3        -11.3487   -7.6599    0.9703 O.2       1 <0>        -0.3599
     23 N2        -10.0566   -5.8680    0.6938 N.am      1 <0>        -0.2022
     24 H2        -10.3008   -5.8231   -0.2749 H         1 <0>         0.2860
     25 N3         -9.2507   -4.9926    1.1760 N.2       1 <0>        -0.0293
     26 H3          0.0021   -0.0041    0.0020 H         1 <0>         0.0757
     27 H4          1.0099    1.4631    0.0003 H         1 <0>         0.0809
     28 H5         -0.5399    1.4469   -0.8751 H         1 <0>         0.0763
     29 H6         -0.2017    1.2182    2.1499 H         1 <0>         0.0959
     30 H7         -0.7436    2.6691    1.2728 H         1 <0>         0.0966
     31 H8         -2.6914    1.4107    0.3946 H         1 <0>         0.1382
     32 H9         -2.1494   -0.0402    1.2717 H         1 <0>         0.1331
     33 H10        -5.3040    1.5917    2.5695 H         1 <0>         0.2477
     34 H11        -4.3932   -1.2166    4.7296 H         1 <0>         0.1110
     35 H12        -5.7523   -0.0589    4.6077 H         1 <0>         0.1123
     36 H13        -6.3705   -2.9950    5.7629 H         1 <0>         0.1364
     37 H14        -7.9260   -4.7135    4.9478 H         1 <0>         0.1331
     38 H15        -7.7507   -2.9885    1.0318 H         1 <0>         0.1483
     39 H16        -6.6057   -0.0551    1.6778 H         1 <0>         0.1046
     40 H17        -5.5256   -1.2118    0.8425 H         1 <0>         0.0945
     41 H18        -9.0814   -5.9973    4.3576 H         1 <0>         0.1498
     42 H19       -10.6445   -7.6930    3.4599 H         1 <0>         0.1726
@<TRIPOS>BOND
     1    1    2 1
     2    1   26 1
     3    1   27 1
     4    1   28 1
     5    2    3 1
     6    2   29 1
     7    2   30 1
     8    3    4 1
     9    3   31 1
    10    3   32 1
    11    4    5 2
    12    4    6 2
    13    4    7 1
    14    7    8 1
    15    7   33 1
    16    8    9 1
    17    8   17 1
    18    8   10 1
    19   10   11 1
    20   10   34 1
    21   10   35 1
    22   11   16 ar
    23   11   12 ar
    24   12   13 ar
    25   12   36 1
    26   13   14 ar
    27   13   37 1
    28   14   15 ar
    29   14   18 1
    30   15   16 ar
    31   15   38 1
    32   16   17 1
    33   17   39 1
    34   17   40 1
    35   18   25 2
    36   18   19 1
    37   19   20 2
    38   19   41 1
    39   20   21 1
    40   20   42 1
    41   21   22 2
    42   21   23 am
    43   23   24 1
    44   23   25 1
@<TRIPOS>MOLECULE
ZINC00017176
   42    44     0     0     0
SMALL
USER_CHARGES

@<TRIPOS>ATOM
      1 C1         -0.0127    1.0858    0.0080 C.3       1 <0>        -0.2017
      2 C2         -0.7288    1.5792    1.2668 C.3       1 <0>        -0.1414
      3 C3         -2.1642    1.0497    1.2777 C.3       1 <0>        -0.7680
      4 S1         -3.0133    1.6347    2.7701 S.o2      1 <0>         2.6800
      5 O1         -2.4472    1.0292    3.9244 O.2       1 <0>        -0.9059
      6 O2         -3.1991    3.0421    2.7077 O.2       1 <0>        -0.9086
      7 N1         -4.5401    1.0019    2.6668 N.pl3     1 <0>        -0.8750
      8 C4         -4.7372   -0.4487    2.7223 C.3       1 <0>         0.0469
      9 H1         -3.8205   -0.9732    2.4526 H         1 <0>         0.1071
     10 C5         -5.2316   -0.8821    4.1186 C.3       1 <0>        -0.1346
     11 C6         -6.1859   -2.0295    3.8627 C.ar      1 <0>        -0.0755
     12 C7         -6.6750   -2.9971    4.7267 C.ar      1 <0>        -0.1140
     13 C8         -7.5480   -3.9617    4.2708 C.ar      1 <0>        -0.1176
     14 C9         -7.9412   -3.9641    2.9337 C.ar      1 <0>        -0.0288
     15 C10        -7.4486   -2.9909    2.0687 C.ar      1 <0>        -0.0754
     16 C11        -6.5728   -2.0274    2.5346 C.ar      1 <0>        -0.0950
     17 C12        -5.9044   -0.8791    1.8089 C.3       1 <0>        -0.1282
     18 C13        -8.8800   -4.9988    2.4347 C.ar      1 <0>        -0.0845
     19 C14        -9.3768   -5.9848    3.3189 C.ar      1 <0>        -0.0729
     20 C15       -10.2381   -6.9196    2.8250 C.ar      1 <0>        -0.2880
     21 C16       -10.5727   -6.8516    1.4544 C.ar      1 <0>         0.1246
     22 O3        -11.3359   -7.6697    0.9666 O.3       1 <0>        -0.1687
     23 N2        -10.0480   -5.8746    0.6913 N.ar      1 <0>        -0.1069
     24 H2        -11.6260   -8.3167    1.6717 H         1 <0>         0.2590
     25 N3         -9.2464   -4.9959    1.1747 N.ar      1 <0>        -0.0006
     26 H3          0.0021   -0.0041    0.0020 H         1 <0>         0.0758
     27 H4          1.0099    1.4631    0.0003 H         1 <0>         0.0802
     28 H5         -0.5399    1.4469   -0.8751 H         1 <0>         0.0765
     29 H6         -0.2017    1.2182    2.1499 H         1 <0>         0.0954
     30 H7         -0.7436    2.6691    1.2728 H         1 <0>         0.0963
     31 H8         -2.6914    1.4107    0.3946 H         1 <0>         0.1386
     32 H9         -2.1494   -0.0402    1.2717 H         1 <0>         0.1336
     33 H10        -5.3040    1.5917    2.5695 H         1 <0>         0.2478
     34 H11        -4.3932   -1.2166    4.7296 H         1 <0>         0.1095
     35 H12        -5.7523   -0.0589    4.6077 H         1 <0>         0.1110
     36 H13        -6.3705   -2.9950    5.7629 H         1 <0>         0.1336
     37 H14        -7.9260   -4.7135    4.9478 H         1 <0>         0.1290
     38 H15        -7.7507   -2.9885    1.0318 H         1 <0>         0.1555
     39 H16        -6.6057   -0.0551    1.6778 H         1 <0>         0.1044
     40 H17        -5.5256   -1.2118    0.8425 H         1 <0>         0.0954
     41 H18        -9.0818   -5.9970    4.3577 H         1 <0>         0.1481
     42 H19       -10.6447   -7.6929    3.4600 H         1 <0>         0.1430
@<TRIPOS>BOND
     1    1    2 1
     2    1   26 1
     3    1   27 1
     4    1   28 1
     5    2    3 1
     6    2   29 1
     7    2   30 1
     8    3    4 1
     9    3   31 1
    10    3   32 1
    11    4    5 2
    12    4    6 2
    13    4    7 1
    14    7    8 1
    15    7   33 1
    16    8    9 1
    17    8   17 1
    18    8   10 1
    19   10   11 1
    20   10   34 1
    21   10   35 1
    22   11   16 ar
    23   11   12 ar
    24   12   13 ar
    25   12   36 1
    26   13   14 ar
    27   13   37 1
    28   14   15 ar
    29   14   18 1
    30   15   16 ar
    31   15   38 1
    32   16   17 1
    33   17   39 1
    34   17   40 1
    35   18   19 ar
    36   18   25 ar
    37   19   41 1
    38   19   20 ar
    39   20   42 1
    40   20   21 ar
    41   21   23 ar
    42   21   22 1
    43   22   24 1
    44   23   25 ar
